Circuit: * C:\Users\Administrator\Documents\DCE\simulaciones\500ma\modelo_1_1\buck.asc

Warning: Multiple definitions of model "pnp1" Type: BJT
Warning: Multiple definitions of model "npn1" Type: BJT
Direct Newton iteration failed to find .op point.  (Use ".option noopiter" to skip.)
Starting Gmin stepping
Gmin = 10
Gmin = 1.07374
vernier = 0.5
vernier = 0.25
vernier = 0.125
vernier = 0.0625
Gmin = 0.995033
vernier = 0.03125
vernier = 0.015625
vernier = 0.0078125
vernier = 0.00390625
Gmin = 0.999816
vernier = 0.00195312
vernier = 0.000976562
vernier = 0.000488281
Gmin = 0
Gmin stepping failed

Starting source stepping with srcstepmethod=0
Source Step = 3.0303%
Source Step = 33.3333%
Source Step = 63.6364%
Source Step = 93.9394%
Source stepping succeeded in finding the operating point.

Heightened Def Con from 0.00951773 to 0.00951773

Date: Fri Oct 27 20:56:00 2023
Total elapsed time: 4310.629 seconds.

tnom = 27
temp = 27
method = modified trap
totiter = 185261934
traniter = 185260243
tranpoints = 63238023
accept = 43936366
rejected = 19301658
matrix size = 115
fillins = 49
solver = Normal
Avg thread counts: 3.0/2.0/1.0/1.0
Matrix Compiler1: 5.05 KB object code size  3.0/1.7/[0.9]
Matrix Compiler2: 8.60 KB object code size  1.3/2.3/[0.7]

