Circuit: * C:\Users\lucas\Desktop\FIUBA\DCE\DCE\simulaciones\500ma\modelo_1_1\buck.asc

Direct Newton iteration failed to find .op point.  (Use ".option noopiter" to skip.)
Starting Gmin stepping
Gmin = 10
Gmin = 1.07374
Gmin = 0.115292
Gmin = 0.0123794
Gmin = 0.00132923
Gmin = 0.000142725
vernier = 0.5
vernier = 0.25
Gmin = 7.52138e-005
vernier = 0.333333
vernier = 0.166667
vernier = 0.0833333
vernier = 0.0416667
vernier = 0.0208333
vernier = 0.0104167
vernier = 0.00520833
Gmin = 6.65387e-005
vernier = 0.00694444
Gmin = 6.5508e-005
vernier = 0.00925925
vernier = 0.0123457
Gmin = 6.3814e-005
vernier = 0.0164609
vernier = 0.0219478
Gmin = 6.12047e-005
vernier = 0.0292638
Gmin = 5.73172e-005
vernier = 0.0390184
vernier = 0.0520245
Gmin = 5.13501e-005
vernier = 0.0693659
vernier = 0.0924879
Gmin = 4.31183e-005
vernier = 0.046244
vernier = 0.0616586
Gmin = 3.91792e-005
vernier = 0.0822114
vernier = 0.109615
Gmin = 3.1862e-005
vernier = 0.146154
Gmin = 2.30566e-005
vernier = 0.194871
vernier = 0.259828
Gmin = 1.34746e-005
vernier = 0.346438
vernier = 0.461917
Gmin = 5.8008e-006
vernier = 0.615889
Gmin = 1.58661e-006
vernier = 0.821185
vernier = 1
Gmin = 2.11966e-007
Gmin = 2.27597e-008
Gmin = 2.4438e-009
Gmin = 2.62401e-010
Gmin = 2.81751e-011
Gmin = 3.02528e-012
Gmin = 3.24837e-013
Gmin = 0
Gmin stepping succeeded in finding the operating point.


Date: Fri Oct 27 15:53:32 2023
Total elapsed time: 1.452 seconds.

tnom = 27
temp = 27
method = modified trap
totiter = 302598
traniter = 300741
tranpoints = 69850
accept = 52971
rejected = 16879
matrix size = 34
fillins = 68
solver = Normal
Matrix Compiler1:     276 opcodes  0.7/[0.2]/0.3
Matrix Compiler2: 3.83 KB object code size  0.2/0.3/[0.2]

