Circuit: * C:\Users\lucas\Desktop\FIUBA\DCE\DCE\simulaciones\500ma\modelo_1_1\Draft1.asc

.OP point found by inspection.

Date: Fri Oct 06 19:18:53 2023
Total elapsed time: 0.028 seconds.

tnom = 27
temp = 27
method = modified trap
totiter = 2282
traniter = 2282
tranpoints = 1142
accept = 1123
rejected = 19
matrix size = 3
fillins = 0
solver = Normal
Matrix Compiler1: 50 bytes object code size  0.0/0.0/[0.0]
Matrix Compiler2: 175 bytes object code size  0.0/0.0/[0.0]

