Circuit: * C:\Users\aldum\OneDrive\Escritorio\FIUBA\Diseño de Circuitos Electrónicos\Proyecto\DCE\simulaciones\500ma\modelo_1_1\Draft1.asc

Fatal Error: Unknown subcircuit called in:
   xu1 n003 n001 nc_01 nc_02 n002 opamp2
