Circuit: * C:\Users\Administrator\Documents\DCE\simulaciones\500ma\modelo_1_1\fuente_completa.asc

Warning: Multiple definitions of model "2scr375p" Type: BJT
Warning: Multiple definitions of model "bc857b" Type: BJT
Warning: Multiple definitions of model "bc847c" Type: BJT
Warning: Multiple definitions of model "bc847b" Type: BJT
WARNING: Specified period is not longer than the sum of Trise, Tfall, and Ton for v8.  Increasing period to 0.002001
WARNING: Node NC_01 is floating.
WARNING: Node NC_02 is floating.

WARNING: Less than two connections to node nc_01.  This node is used by c3.
WARNING: Less than two connections to node nc_02.  This node is used by c3.
WARNING: Less than two connections to node nc_03.  This node is used by r20.
WARNING: Less than two connections to node nc_04.  This node is used by r22.
WARNING: Less than two connections to node nc_06.  This node is used by r27.
WARNING: Less than two connections to node nc_07.  This node is used by r30.
WARNING: Less than two connections to node nc_08.  This node is used by r31.
WARNING: Less than two connections to node nc_10.  This node is used by m2.
WARNING: Less than two connections to node q.  This node is used by a1.
Direct Newton iteration failed to find .op point.  (Use ".option noopiter" to skip.)
Starting Gmin stepping
Gmin = 10
Gmin = 1.07374
Gmin = 0.115292
Gmin = 0.0123794
Gmin = 0.00132923
Gmin = 0.000142725
Gmin = 1.5325e-05
Gmin = 1.6455e-06
Gmin = 1.76685e-07
Gmin = 1.89714e-08
Gmin = 2.03704e-09
Gmin = 2.18725e-10
Gmin = 2.34854e-11
Gmin = 2.52173e-12
Gmin = 2.70769e-13
Gmin = 0
Gmin stepping succeeded in finding the operating point.

Changing Tseed to 9.76562e-10

Date: Fri Nov 10 21:21:24 2023
Total elapsed time: 1.245 seconds.

tnom = 27
temp = 27
method = modified trap
totiter = 12881
traniter = 12286
tranpoints = 4063
accept = 3287
rejected = 775
matrix size = 275
fillins = 235
solver = Normal
Avg thread counts: 2.1/4.0/1.5/1.2
Matrix Compiler1: 32.91 KB object code size  9.9/5.7/[3.2]
Matrix Compiler2: 27.00 KB object code size  6.8/7.8/[2.8]

