Circuit: * C:\Users\aldum\OneDrive\Escritorio\FIUBA\Diseño de Circuitos Electrónicos\Proyecto\DCE\simulaciones\500ma\modelo_1_1\modelo_1_1.asc

Warning: Multiple definitions of model "2scr375p" Type: BJT
Warning: Multiple definitions of model "bc857b" Type: BJT
Warning: Multiple definitions of model "bc847c" Type: BJT
Warning: Multiple definitions of model "bc847b" Type: BJT
WARNING: Node N034 is floating.

WARNING: Less than two connections to node nc_01.  This node is used by r14.
WARNING: Less than two connections to node nc_02.  This node is used by r16.
WARNING: Less than two connections to node nc_04.  This node is used by r21.
WARNING: Less than two connections to node nc_05.  This node is used by r24.
WARNING: Less than two connections to node nc_06.  This node is used by r6.
WARNING: Less than two connections to node n034.  This node is used by l1.
WARNING: Less than two connections to node n006.  This node is used by r44.
Direct Newton iteration failed to find .op point.  (Use ".option noopiter" to skip.)
Starting Gmin stepping
Gmin = 10
Gmin = 1.07374
Gmin = 0.115292
Gmin = 0.0123794
Gmin = 0.00132923
Gmin = 0.000142725
Gmin = 1.5325e-05
vernier = 0.5
vernier = 0.25
vernier = 0.333333
Gmin = 1.20543e-05
vernier = 0.444444
Gmin = 4.65101e-06
vernier = 0.592592
vernier = 0.790123
Gmin = 9.87218e-07
vernier = 1
Gmin = 1.15494e-07
Gmin = 1.24011e-08
Gmin = 1.33156e-09
Gmin = 1.42975e-10
Gmin = 1.53518e-11
Gmin = 1.64839e-12
Gmin = 1.76994e-13
Gmin = 0
Gmin stepping succeeded in finding the operating point.


Date: Thu Oct  5 22:56:20 2023
Total elapsed time: 0.331 seconds.

tnom = 27
temp = 27
method = modified trap
totiter = 11157
traniter = 10422
tranpoints = 4891
accept = 4150
rejected = 741
matrix size = 97
fillins = 91
solver = Normal
Avg thread counts: 1.4/1.8/1.8/1.4
Matrix Compiler1: 11.03 KB object code size  2.2/1.3/[1.1]
Matrix Compiler2: 9.88 KB object code size  0.9/1.4/[0.6]

