Circuit: * C:\users\alumno\Desktop\DCE\simulaciones\500ma\modelo_1_1\modelo_1_1.asc

Warning: Multiple definitions of model "2scr375p" Type: BJT
Warning: Multiple definitions of model "bc857b" Type: BJT
Warning: Multiple definitions of model "bc847c" Type: BJT
Warning: Multiple definitions of model "bc847b" Type: BJT
R5: both pins shorted together -- ignoring.

Date: Sun Sep 10 21:43:09 2023
Total elapsed time: 0.076 seconds.

tnom = 27
temp = 27
method = trap
totiter = 5988
traniter = 0
tranpoints = 0
accept = 0
rejected = 0
matrix size = 43
fillins = 24
solver = Normal
Matrix Compiler1:     259 opcodes  0.7/[0.3]/0.4
Matrix Compiler2: off  [0.3]/0.4/0.3

