Circuit: * C:\Users\Facu\Documents\DCE\simulaciones\500ma\modelo_1_1\modelo_1_1.asc

Warning: Multiple definitions of model "2scr375p" Type: BJT
Warning: Multiple definitions of model "bc857b" Type: BJT
Warning: Multiple definitions of model "bc847c" Type: BJT
Warning: Multiple definitions of model "bc847b" Type: BJT
WARNING: Less than two connections to node nc_01.  This node is used by r6.

Date: Fri Sep  8 21:39:31 2023
Total elapsed time: 0.151 seconds.

tnom = 27
temp = 27
method = trap
totiter = 3989
traniter = 0
tranpoints = 0
accept = 0
rejected = 0
matrix size = 42
fillins = 18
solver = Normal
Avg thread counts: 1.7/0.0/2.4/1.7
Matrix Compiler1: 4.32 KB object code size  1.2/1.0/[0.6]
Matrix Compiler2: 4.04 KB object code size  0.4/0.7/[0.4]

