Circuit: * C:\Users\aldum\OneDrive\Escritorio\FIUBA\Diseño de Circuitos Electrónicos\Proyecto\DCE\simulaciones\500ma\modelo_1_1\modelo_1_1.asc

Warning: Multiple definitions of model "2scr375p" Type: BJT
Warning: Multiple definitions of model "bc857b" Type: BJT
Warning: Multiple definitions of model "bc847c" Type: BJT
Warning: Multiple definitions of model "bc847b" Type: BJT
WARNING: Node N033 is floating.

WARNING: Less than two connections to node nc_01.  This node is used by r14.
WARNING: Less than two connections to node nc_02.  This node is used by r16.
WARNING: Less than two connections to node nc_04.  This node is used by r21.
WARNING: Less than two connections to node nc_05.  This node is used by r24.
WARNING: Less than two connections to node nc_06.  This node is used by r6.
WARNING: Less than two connections to node n033.  This node is used by l1.
WARNING: Less than two connections to node n003.  This node is used by v5.
Direct Newton iteration failed to find .op point.  (Use ".option noopiter" to skip.)
Starting Gmin stepping
Gmin = 10
Gmin = 1.07374
Gmin = 0.115292
Gmin = 0.0123794
Gmin = 0.00132923
Gmin = 0.000142725
Gmin = 1.5325e-05
vernier = 0.5
vernier = 0.25
vernier = 0.333333
Gmin = 1.20543e-05
vernier = 0.444444
Gmin = 4.65101e-06
vernier = 0.592592
vernier = 0.790123
Gmin = 9.87218e-07
vernier = 1
Gmin = 1.15494e-07
Gmin = 1.24011e-08
vernier = 0.5
vernier = 0.25
vernier = 0.125
Gmin = 5.07948e-09
vernier = 0.0625
vernier = 0.03125
vernier = 0.015625
vernier = 0.0078125
Gmin = 4.9064e-09
vernier = 0.00390625
vernier = 0.00195312
vernier = 0.000976562
Gmin = 4.88967e-09
vernier = 0.000488281
Gmin = 0
Gmin stepping failed

Starting source stepping with srcstepmethod=0
Source Step = 3.0303%
vernier = 0.25
Source Step = 0.337358%
Starting source stepping with srcstepmethod=1
Source Step = 3.0303%
vernier = 0.25
Source Step = 0.337358%
Source stepping failed

Pseudo Transient failed in finding the operating point at 35.1773 µs.
Trouble finding operating point....skipping operating point for Transient analysis.
