Circuit: * C:\Users\aldum\OneDrive\Escritorio\FIUBA\Diseño de Circuitos Electrónicos\Proyecto\DCE\simulaciones\500ma\modelo_1_1\modelo_1_1.asc

Warning: Multiple definitions of model "2scr375p" Type: BJT
Warning: Multiple definitions of model "bc857b" Type: BJT
Warning: Multiple definitions of model "bc847c" Type: BJT
Warning: Multiple definitions of model "bc847b" Type: BJT
WARNING: Less than two connections to node nc_01.  This node is used by r14.
WARNING: Less than two connections to node nc_02.  This node is used by r16.
WARNING: Less than two connections to node nc_04.  This node is used by r21.
WARNING: Less than two connections to node nc_05.  This node is used by r24.
WARNING: Less than two connections to node nc_06.  This node is used by r6.
Direct Newton iteration failed to find .op point.  (Use ".option noopiter" to skip.)
Starting Gmin stepping
Gmin = 10
Gmin = 1.07374
Gmin = 0.115292
Gmin = 0.0123794
Gmin = 0.00132923
Gmin = 0.000142725
Gmin = 1.5325e-05
vernier = 0.5
vernier = 0.25
vernier = 0.333333
Gmin = 1.20543e-05
vernier = 0.444444
Gmin = 4.65101e-06
vernier = 0.592592
vernier = 0.790123
Gmin = 9.87218e-07
vernier = 1
Gmin = 1.15494e-07
Gmin = 1.24011e-08
Gmin = 1.33156e-09
Gmin = 1.42975e-10
Gmin = 1.53518e-11
Gmin = 1.64839e-12
Gmin = 1.76994e-13
Gmin = 0
Gmin stepping succeeded in finding the operating point.


Date: Fri Sep 29 20:54:34 2023
Total elapsed time: 0.452 seconds.

tnom = 27
temp = 27
method = trap
totiter = 804
traniter = 0
tranpoints = 0
accept = 0
rejected = 0
matrix size = 90
fillins = 94
solver = Normal
Avg thread counts: 6.0/0.0/12.0/1.5
Matrix Compiler1:     611 opcodes
Matrix Compiler2: 9.45 KB object code size  1.2/1.6/[1.0]

