Circuit: * C:\Users\aldum\OneDrive\Escritorio\FIUBA\Diseño de Circuitos Electrónicos\Proyecto\DCE\simulaciones\500ma\modelo_1_1\modelo_1_1.asc

Warning: Multiple definitions of model "2scr375p" Type: BJT
Warning: Multiple definitions of model "bc857b" Type: BJT
Warning: Multiple definitions of model "bc847c" Type: BJT
Warning: Multiple definitions of model "bc847b" Type: BJT
WARNING: Node N005 is floating.

WARNING: Less than two connections to node nc_01.  This node is used by r14.
WARNING: Less than two connections to node nc_02.  This node is used by r16.
WARNING: Less than two connections to node nc_04.  This node is used by r21.
WARNING: Less than two connections to node nc_05.  This node is used by r24.
WARNING: Less than two connections to node nc_06.  This node is used by r6.
WARNING: Less than two connections to node n005.  This node is used by l1.
Direct Newton iteration for .op point succeeded.

Date: Fri Sep 22 21:30:43 2023
Total elapsed time: 0.398 seconds.

tnom = 27
temp = 27
method = modified trap
totiter = 10968
traniter = 10940
tranpoints = 4838
accept = 4037
rejected = 801
matrix size = 91
fillins = 56
solver = Normal
Avg thread counts: 1.4/1.8/1.8/1.4
Matrix Compiler1: 8.66 KB object code size  3.4/2.3/[1.7]
Matrix Compiler2: 8.82 KB object code size  1.8/2.0/[1.1]

