Circuit: * Z:\home\alumno\Desktop\modelo_1_1.asc

Warning: Multiple definitions of model "2scr375p" Type: BJT
Warning: Multiple definitions of model "bc857b" Type: BJT
Warning: Multiple definitions of model "bc847c" Type: BJT
Warning: Multiple definitions of model "bc847b" Type: BJT

Date: Sat Sep 02 10:51:55 2023
Total elapsed time: 0.042 seconds.

tnom = 27
temp = 27
method = trap
totiter = 1989
traniter = 0
tranpoints = 0
accept = 0
rejected = 0
matrix size = 39
fillins = 18
solver = Normal
Matrix Compiler1: 4.16 KB object code size  0.7/0.4/[0.4]
Matrix Compiler2: 3.86 KB object code size  0.3/0.4/[0.3]

