Circuit: * C:\Users\lucas\Desktop\FIUBA\DCE\DCE\simulaciones\500ma\modelo_1_1\modelo_1_1.asc

WARNING: Specified period is not longer than the sum of Trise, Tfall, and Ton for v5.  Increasing period to 0.002001
WARNING: Node N040 is floating.

WARNING: Less than two connections to node NC_01.  This node is used by R14.
WARNING: Less than two connections to node NC_02.  This node is used by R16.
WARNING: Less than two connections to node NC_04.  This node is used by R21.
WARNING: Less than two connections to node NC_05.  This node is used by R24.
WARNING: Less than two connections to node NC_06.  This node is used by R6.
WARNING: Less than two connections to node N040.  This node is used by L1.
WARNING: Less than two connections to node Q.  This node is used by A1.
Direct Newton iteration failed to find .op point.  (Use ".option noopiter" to skip.)
Starting Gmin stepping
Gmin = 10
Gmin = 1.07374
Gmin = 0.115292
Gmin = 0.0123794
Gmin = 0.00132923
vernier = 0.5
Gmin = 0.000223007
vernier = 0.25
vernier = 0.125
vernier = 0.0625
Gmin = 0.000178089
vernier = 0.03125
vernier = 0.015625
vernier = 0.0208333
Gmin = 0.000175093
vernier = 0.0277778
Gmin = 0.000164802
vernier = 0.037037
vernier = 0.0493827
Gmin = 0.000149263
vernier = 0.0658435
vernier = 0.0877914
Gmin = 0.000127642
vernier = 0.117055
Gmin = 9.91327e-005
vernier = 0.156073
vernier = 0.208098
Gmin = 6.57466e-005
vernier = 0.277464
vernier = 0.369952
Gmin = 3.45638e-005
vernier = 0.493269
Gmin = 1.24173e-005
vernier = 0.657691
vernier = 0.876922
Gmin = 2.44682e-006
vernier = 1
Gmin = 2.83122e-007
Gmin = 3.04e-008
Gmin = 3.26418e-009
Gmin = 3.50489e-010
Gmin = 3.76334e-011
Gmin = 4.04086e-012
Gmin = 4.33884e-013
Gmin = 0
Gmin stepping succeeded in finding the operating point.


Date: Fri Oct 06 19:48:01 2023
Total elapsed time: 0.356 seconds.

tnom = 27
temp = 27
method = modified trap
totiter = 14800
traniter = 13326
tranpoints = 4639
accept = 3791
rejected = 848
matrix size = 122
fillins = 100
solver = Normal
Matrix Compiler1: 12.73 KB object code size  2.4/0.8/[0.8]
Matrix Compiler2: 12.09 KB object code size  0.7/0.9/[0.7]

