Circuit: * C:\Users\Administrator\Documents\DCE\simulaciones\500ma\modelo_1_1\modelo_1_1.asc

Warning: Multiple definitions of model "2scr375p" Type: BJT
Warning: Multiple definitions of model "bc857b" Type: BJT
Warning: Multiple definitions of model "bc847c" Type: BJT
Warning: Multiple definitions of model "bc847b" Type: BJT
WARNING: Specified period is not longer than the sum of Trise, Tfall, and Ton for v5.  Increasing period to 0.002001
WARNING: Less than two connections to node n010.  This node is used by v1.
WARNING: Less than two connections to node nc_01.  This node is used by r14.
WARNING: Less than two connections to node nc_02.  This node is used by r16.
WARNING: Less than two connections to node nc_04.  This node is used by r21.
WARNING: Less than two connections to node nc_05.  This node is used by r24.
WARNING: Less than two connections to node nc_06.  This node is used by r6.
WARNING: Less than two connections to node nc_08.  This node is used by v4.
WARNING: Less than two connections to node nc_09.  This node is used by m3.
WARNING: Less than two connections to node q.  This node is used by a1.
Direct Newton iteration failed to find .op point.  (Use ".option noopiter" to skip.)
Starting Gmin stepping
Gmin = 10
Gmin = 1.07374
Gmin = 0.115292
Gmin = 0.0123794
Gmin = 0.00132923
Gmin = 0.000142725
vernier = 0.5
vernier = 0.25
Gmin = 4.89078e-05
vernier = 0.125
vernier = 0.0625
vernier = 0.0833333
Gmin = 4.56795e-05
vernier = 0.111111
Gmin = 3.59295e-05
vernier = 0.148148
vernier = 0.197531
Gmin = 2.43212e-05
vernier = 0.263374
vernier = 0.351165
Gmin = 1.3197e-05
vernier = 0.46822
Gmin = 4.98167e-06
vernier = 0.624294
vernier = 0.832392
Gmin = 1.05945e-06
vernier = 1
Gmin = 1.2601e-07
Gmin = 1.35302e-08
Gmin = 1.4528e-09
Gmin = 1.55993e-10
Gmin = 1.67496e-11
Gmin = 1.79848e-12
Gmin = 1.9311e-13
Gmin = 0
Gmin stepping succeeded in finding the operating point.


Date: Fri Oct 27 21:09:24 2023
Total elapsed time: 0.418 seconds.

tnom = 27
temp = 27
method = modified trap
totiter = 3718
traniter = 2574
tranpoints = 1212
accept = 1176
rejected = 36
matrix size = 135
fillins = 104
solver = Normal
Avg thread counts: 2.7/3.4/3.2/2.1
Matrix Compiler1: 13.79 KB object code size  5.3/3.3/[1.5]
Matrix Compiler2: 13.28 KB object code size  2.3/3.4/[1.2]

