Circuit: * C:\Users\aldum\OneDrive\Escritorio\FIUBA\Diseño de Circuitos Electrónicos\Proyecto\DCE\simulaciones\500ma\modelo_1_1\triangular.asc

Direct Newton iteration for .op point succeeded.
Ignoring empty pin current: Ix(u2:1)
Ignoring empty pin current: Ix(u2:2)
Ignoring empty pin current: Ix(u2:1)
Ignoring empty pin current: Ix(u2:2)

Date: Thu Oct  5 21:48:43 2023
Total elapsed time: 0.273 seconds.

tnom = 27
temp = 27
method = modified trap
totiter = 4799
traniter = 4796
tranpoints = 2399
accept = 2349
rejected = 50
matrix size = 6
fillins = 1
solver = Normal
Avg thread counts: 1.8/2.6/2.7/1.8
Matrix Compiler1:      11 opcodes  0.3/[0.3]/0.3
Matrix Compiler2: 354 bytes object code size  0.2/0.3/[0.2]

